Version 4
SHEET 1 1564 680
WIRE 144 -160 80 -160
WIRE 80 -144 80 -160
WIRE 144 -112 144 -160
WIRE 1296 -16 960 -16
WIRE 1424 -16 1376 -16
WIRE -48 16 -64 16
WIRE 208 16 32 16
WIRE 960 48 960 -16
WIRE 80 80 80 -64
WIRE 1296 96 1088 96
WIRE 1424 96 1376 96
WIRE -352 144 -480 144
WIRE -160 144 -272 144
WIRE -64 144 -64 16
WIRE -64 144 -80 144
WIRE 48 144 -64 144
WIRE 208 144 208 16
WIRE 320 144 208 144
WIRE 640 144 400 144
WIRE 736 144 640 144
WIRE -480 176 -480 144
WIRE 736 176 736 144
WIRE 1152 192 1088 192
WIRE 1280 192 1216 192
WIRE 16 208 -80 208
WIRE 48 208 16 208
WIRE 304 208 208 208
WIRE 448 208 384 208
WIRE 736 208 448 208
WIRE -160 240 -224 240
WIRE -80 240 -80 208
WIRE -224 272 -224 240
WIRE 16 304 16 208
WIRE 128 304 16 304
WIRE 208 304 208 208
WIRE 112 368 112 272
WIRE 448 368 448 208
WIRE 960 368 960 336
WIRE 80 384 80 272
WIRE 80 384 32 384
WIRE 640 384 640 144
WIRE 32 416 32 384
WIRE 448 464 448 432
WIRE 640 480 640 448
WIRE 112 496 112 448
FLAG -224 272 0
FLAG 112 496 0
FLAG 32 416 0
FLAG 144 -112 0
FLAG -480 176 0
FLAG 448 464 0
FLAG 640 480 0
FLAG 960 368 0
FLAG 1424 96 0
FLAG 1280 192 0
FLAG 1424 -16 0
SYMBOL OpAmps\\AD8137 80 176 R0
SYMATTR InstName U1
SYMBOL res 48 0 R90
WINDOW 0 0 56 VBottom 2
WINDOW 3 32 56 VTop 2
SYMATTR InstName R1
SYMATTR Value 1000
SYMBOL res -64 128 R90
WINDOW 0 0 56 VBottom 2
WINDOW 3 32 56 VTop 2
SYMATTR InstName R2
SYMATTR Value 1000
SYMBOL res -64 224 R90
WINDOW 0 0 56 VBottom 2
WINDOW 3 33 57 VTop 2
SYMATTR InstName R3
SYMATTR Value 1K
SYMATTR SpiceLine tol=1 pwr=0.1
SYMBOL res 224 288 R90
WINDOW 0 0 56 VBottom 2
WINDOW 3 32 56 VTop 2
SYMATTR InstName R4
SYMATTR Value 1000
SYMBOL cap 432 368 R0
SYMATTR InstName C3
SYMATTR Value 1n
SYMBOL cap 624 384 R0
SYMATTR InstName C4
SYMATTR Value 1n
SYMBOL voltage 112 352 R0
WINDOW 123 0 0 Left 0
WINDOW 39 0 0 Left 0
SYMATTR InstName V1
SYMATTR Value 2.5
SYMBOL voltage -256 144 R90
WINDOW 0 -32 56 VBottom 2
WINDOW 3 32 56 VTop 2
WINDOW 123 -4 56 VBottom 2
WINDOW 39 24 56 VBottom 2
SYMATTR InstName V2
SYMATTR Value SINE(0 .5 12.5 0 0 0 0)
SYMATTR Value2 AC .5 0
SYMATTR SpiceLine Rser=50
SYMBOL voltage 80 -48 R180
WINDOW 0 24 96 Left 2
WINDOW 3 24 16 Left 2
WINDOW 123 0 0 Left 0
WINDOW 39 0 0 Left 0
SYMATTR InstName V3
SYMATTR Value 5
SYMBOL res 416 128 R90
WINDOW 0 0 56 VBottom 2
WINDOW 3 32 56 VTop 2
SYMATTR InstName R5
SYMATTR Value 1000
SYMBOL res 400 192 R90
WINDOW 0 0 56 VBottom 2
WINDOW 3 32 56 VTop 2
SYMATTR InstName R6
SYMATTR Value 1000
SYMBOL voltage 1280 96 M90
WINDOW 0 47 41 VRight 2
WINDOW 3 -44 39 VRight 2
WINDOW 123 0 0 Left 2
WINDOW 39 0 0 Left 2
SYMATTR InstName V4
SYMATTR Value 1.8
SYMBOL cap 1216 176 R90
WINDOW 0 0 32 VBottom 2
WINDOW 3 32 32 VTop 2
SYMATTR InstName C1
SYMATTR Value 10p
SYMBOL voltage 1280 -16 R270
WINDOW 0 32 56 VTop 2
WINDOW 3 -32 56 VBottom 2
SYMATTR InstName V6
SYMATTR Value 5
SYMBOL AD4003 992 192 R0
SYMATTR InstName U2
TEXT -500 520 Left 2 !.tran 0 1 0 .05
