1
9
.tran 1u 1m{return}{return}
4
1
/DAC
V
1
/reference
V
1
Example
V
1
all 1k
V
